CM Example 2 :	Loaded dipole in free space
CM 		See GetStarted.txt
CM 
CM 
CM 
CM 
CE
GW	1	9	0	-.01875	0	0	.01875	0	0.0005	'Wire 1, 9 segments, halve wavelength long.
GS	0	0	0.999333
GE	0
LD	5	1	0	0	58000000	'Wire conductivity
LD	4	1	3	0	0	263
LD	4	1	7	0	0	263
GN	-1
EK
EX	0	1	5	0	1	0	0	'Voltage source (1+j0) at wire 1 segment 5.
FR	0	0	0	0	2000	0
EN
